     9
        -14.27977341
C           0.71630854086085   -0.68989822005667    0.00078030545829
C          -0.69839480193716   -0.69736220100057    0.12245452382262
C          -1.22603589061480    0.55355470394268    0.05508091273849
S          -0.02274839791551    1.76088873951302   -0.15641847684196
C           1.21156783728769    0.56643295953541   -0.15457154401298
H           1.32377414960184   -1.58359062258622    0.02919916806012
H          -1.28262289638493   -1.59739281561109    0.25337163921146
H          -2.26519493913956    0.83177038335483    0.11894093018108
H           2.24334639824159    0.85569707290862   -0.26883745861712
